<?xml version="1.0" encoding="UTF-8"?>

<!-- generated on 2023-11-28 10:43:58 by Eclipse SUMO netedit Version 1.14.1
<configuration xmlns:xsi="http://www.w3.org/2001/XMLSchema-instance" xsi:noNamespaceSchemaLocation="http://sumo.dlr.de/xsd/netconvertConfiguration.xsd">

    <input>
        <sumo-net-file value="C:\Users\user\Python_Anaconda\Tasks\08_Traffic%20Congestion%20Control%20with%20kalman%20filter%20and%20graph%20state%20and%20GCN\TCC-MI\Networks\environment%20-%20Copy\environment.net.xml"/>
    </input>

    <output>
        <output-file value="C:\Users\user\Python_Anaconda\Tasks\08_Traffic%20Congestion%20Control%20with%20kalman%20filter%20and%20graph%20state%20and%20GCN\TCC-MI\Networks\environment%20-%20Copy\environment.net.xml"/>
    </output>

    <processing>
        <geometry.min-radius.fix.railways value="false"/>
        <geometry.max-grade.fix value="false"/>
        <offset.disable-normalization value="true"/>
        <lefthand value="false"/>
    </processing>

    <junctions>
        <no-turnarounds value="true"/>
        <junctions.corner-detail value="5"/>
        <junctions.limit-turn-speed value="5.5"/>
        <rectangular-lane-cut value="false"/>
    </junctions>

    <pedestrian>
        <walkingareas value="false"/>
    </pedestrian>

</configuration>
-->

<net version="1.9" junctionCornerDetail="5" limitTurnSpeed="5.50" xmlns:xsi="http://www.w3.org/2001/XMLSchema-instance" xsi:noNamespaceSchemaLocation="http://sumo.dlr.de/xsd/net_file.xsd">

    <location netOffset="0.00,0.00" convBoundary="-200.00,-100.00,200.23,300.00" origBoundary="-10000000000.00,-10000000000.00,10000000000.00,10000000000.00" projParameter="!"/>

    <edge id=":J0_0" function="internal">
        <lane id=":J0_0_0" index="0" speed="3.00" length="9.03" shape="-8.00,113.60 -8.35,111.15 -9.40,109.40 -11.15,108.35 -13.60,108.00"/>
    </edge>
    <edge id=":J0_1" function="internal">
        <lane id=":J0_1_0" index="0" speed="3.00" length="27.20" shape="-8.00,113.60 -8.00,86.40"/>
        <lane id=":J0_1_1" index="1" speed="3.00" length="27.20" shape="-4.80,113.60 -4.80,86.40"/>
        <lane id=":J0_1_2" index="2" speed="3.00" length="27.20" shape="-1.60,113.60 -1.60,86.40"/>
    </edge>
    <edge id=":J0_4" function="internal">
        <lane id=":J0_4_0" index="0" speed="3.00" length="5.01" shape="-1.60,113.60 -0.89,108.64"/>
    </edge>
    <edge id=":J0_20" function="internal">
        <lane id=":J0_20_0" index="0" speed="3.00" length="19.50" shape="-0.89,108.64 -0.65,106.95 2.20,102.20 6.95,99.35 13.60,98.40"/>
    </edge>
    <edge id=":J0_5" function="internal">
        <lane id=":J0_5_0" index="0" speed="3.00" length="9.03" shape="13.60,108.00 11.15,108.35 9.40,109.40 8.35,111.15 8.00,113.60"/>
    </edge>
    <edge id=":J0_6" function="internal">
        <lane id=":J0_6_0" index="0" speed="3.00" length="27.20" shape="13.60,108.00 -13.60,108.00"/>
        <lane id=":J0_6_1" index="1" speed="3.00" length="27.20" shape="13.60,104.80 -13.60,104.80"/>
        <lane id=":J0_6_2" index="2" speed="3.00" length="27.20" shape="13.60,101.60 -13.60,101.60"/>
    </edge>
    <edge id=":J0_9" function="internal">
        <lane id=":J0_9_0" index="0" speed="3.00" length="5.01" shape="13.60,101.60 8.64,100.89"/>
    </edge>
    <edge id=":J0_21" function="internal">
        <lane id=":J0_21_0" index="0" speed="3.00" length="19.50" shape="8.64,100.89 6.95,100.65 2.20,97.80 -0.65,93.05 -1.60,86.40"/>
    </edge>
    <edge id=":J0_10" function="internal">
        <lane id=":J0_10_0" index="0" speed="3.00" length="9.03" shape="8.00,86.40 8.35,88.85 9.40,90.60 11.15,91.65 13.60,92.00"/>
    </edge>
    <edge id=":J0_11" function="internal">
        <lane id=":J0_11_0" index="0" speed="3.00" length="27.20" shape="8.00,86.40 8.00,113.60"/>
        <lane id=":J0_11_1" index="1" speed="3.00" length="27.20" shape="4.80,86.40 4.80,113.60"/>
        <lane id=":J0_11_2" index="2" speed="3.00" length="27.20" shape="1.60,86.40 1.60,113.60"/>
    </edge>
    <edge id=":J0_14" function="internal">
        <lane id=":J0_14_0" index="0" speed="3.00" length="5.01" shape="1.60,86.40 0.89,91.36"/>
    </edge>
    <edge id=":J0_22" function="internal">
        <lane id=":J0_22_0" index="0" speed="3.00" length="19.50" shape="0.89,91.36 0.65,93.05 -2.20,97.80 -6.95,100.65 -13.60,101.60"/>
    </edge>
    <edge id=":J0_15" function="internal">
        <lane id=":J0_15_0" index="0" speed="3.00" length="9.03" shape="-13.60,92.00 -11.15,91.65 -9.40,90.60 -8.35,88.85 -8.00,86.40"/>
    </edge>
    <edge id=":J0_16" function="internal">
        <lane id=":J0_16_0" index="0" speed="3.00" length="27.20" shape="-13.60,92.00 13.60,92.00"/>
        <lane id=":J0_16_1" index="1" speed="3.00" length="27.20" shape="-13.60,95.20 13.60,95.20"/>
        <lane id=":J0_16_2" index="2" speed="3.00" length="27.20" shape="-13.60,98.40 13.60,98.40"/>
    </edge>
    <edge id=":J0_19" function="internal">
        <lane id=":J0_19_0" index="0" speed="3.00" length="5.01" shape="-13.60,98.40 -8.64,99.11"/>
    </edge>
    <edge id=":J0_23" function="internal">
        <lane id=":J0_23_0" index="0" speed="3.00" length="19.50" shape="-8.64,99.11 -6.95,99.35 -2.20,102.20 0.65,106.95 1.60,113.60"/>
    </edge>
    <edge id=":J1_0" function="internal">
        <lane id=":J1_0_0" index="0" speed="3.00" length="9.03" shape="92.00,113.60 91.65,111.15 90.60,109.40 88.85,108.35 86.40,108.00"/>
    </edge>
    <edge id=":J1_1" function="internal">
        <lane id=":J1_1_0" index="0" speed="3.00" length="27.20" shape="92.00,113.60 92.00,86.40"/>
        <lane id=":J1_1_1" index="1" speed="3.00" length="27.20" shape="95.20,113.60 95.20,86.40"/>
        <lane id=":J1_1_2" index="2" speed="3.00" length="27.20" shape="98.40,113.60 98.40,86.40"/>
    </edge>
    <edge id=":J1_4" function="internal">
        <lane id=":J1_4_0" index="0" speed="3.00" length="5.01" shape="98.40,113.60 99.11,108.64"/>
    </edge>
    <edge id=":J1_20" function="internal">
        <lane id=":J1_20_0" index="0" speed="3.00" length="19.50" shape="99.11,108.64 99.35,106.95 102.20,102.20 106.95,99.35 113.60,98.40"/>
    </edge>
    <edge id=":J1_5" function="internal">
        <lane id=":J1_5_0" index="0" speed="3.00" length="9.03" shape="113.60,108.00 111.15,108.35 109.40,109.40 108.35,111.15 108.00,113.60"/>
    </edge>
    <edge id=":J1_6" function="internal">
        <lane id=":J1_6_0" index="0" speed="3.00" length="27.20" shape="113.60,108.00 86.40,108.00"/>
        <lane id=":J1_6_1" index="1" speed="3.00" length="27.20" shape="113.60,104.80 86.40,104.80"/>
        <lane id=":J1_6_2" index="2" speed="3.00" length="27.20" shape="113.60,101.60 86.40,101.60"/>
    </edge>
    <edge id=":J1_9" function="internal">
        <lane id=":J1_9_0" index="0" speed="3.00" length="5.01" shape="113.60,101.60 108.64,100.89"/>
    </edge>
    <edge id=":J1_21" function="internal">
        <lane id=":J1_21_0" index="0" speed="3.00" length="19.50" shape="108.64,100.89 106.95,100.65 102.20,97.80 99.35,93.05 98.40,86.40"/>
    </edge>
    <edge id=":J1_10" function="internal">
        <lane id=":J1_10_0" index="0" speed="3.00" length="9.03" shape="108.00,86.40 108.35,88.85 109.40,90.60 111.15,91.65 113.60,92.00"/>
    </edge>
    <edge id=":J1_11" function="internal">
        <lane id=":J1_11_0" index="0" speed="3.00" length="27.20" shape="108.00,86.40 108.00,113.60"/>
        <lane id=":J1_11_1" index="1" speed="3.00" length="27.20" shape="104.80,86.40 104.80,113.60"/>
        <lane id=":J1_11_2" index="2" speed="3.00" length="27.20" shape="101.60,86.40 101.60,113.60"/>
    </edge>
    <edge id=":J1_14" function="internal">
        <lane id=":J1_14_0" index="0" speed="3.00" length="5.01" shape="101.60,86.40 100.89,91.36"/>
    </edge>
    <edge id=":J1_22" function="internal">
        <lane id=":J1_22_0" index="0" speed="3.00" length="19.50" shape="100.89,91.36 100.65,93.05 97.80,97.80 93.05,100.65 86.40,101.60"/>
    </edge>
    <edge id=":J1_15" function="internal">
        <lane id=":J1_15_0" index="0" speed="3.00" length="9.03" shape="86.40,92.00 88.85,91.65 90.60,90.60 91.65,88.85 92.00,86.40"/>
    </edge>
    <edge id=":J1_16" function="internal">
        <lane id=":J1_16_0" index="0" speed="3.00" length="27.20" shape="86.40,92.00 113.60,92.00"/>
        <lane id=":J1_16_1" index="1" speed="3.00" length="27.20" shape="86.40,95.20 113.60,95.20"/>
        <lane id=":J1_16_2" index="2" speed="3.00" length="27.20" shape="86.40,98.40 113.60,98.40"/>
    </edge>
    <edge id=":J1_19" function="internal">
        <lane id=":J1_19_0" index="0" speed="3.00" length="5.01" shape="86.40,98.40 91.36,99.11"/>
    </edge>
    <edge id=":J1_23" function="internal">
        <lane id=":J1_23_0" index="0" speed="3.00" length="19.50" shape="91.36,99.11 93.05,99.35 97.80,102.20 100.65,106.95 101.60,113.60"/>
    </edge>
    <edge id=":J11_0" function="internal">
        <lane id=":J11_0_0" index="0" speed="3.00" length="9.03" shape="-108.00,113.60 -108.35,111.15 -109.40,109.40 -111.15,108.35 -113.60,108.00"/>
    </edge>
    <edge id=":J11_1" function="internal">
        <lane id=":J11_1_0" index="0" speed="3.00" length="27.20" shape="-108.00,113.60 -108.00,86.40"/>
        <lane id=":J11_1_1" index="1" speed="3.00" length="27.20" shape="-104.80,113.60 -104.80,86.40"/>
        <lane id=":J11_1_2" index="2" speed="3.00" length="27.20" shape="-101.60,113.60 -101.60,86.40"/>
    </edge>
    <edge id=":J11_4" function="internal">
        <lane id=":J11_4_0" index="0" speed="3.00" length="5.01" shape="-101.60,113.60 -100.89,108.64"/>
    </edge>
    <edge id=":J11_20" function="internal">
        <lane id=":J11_20_0" index="0" speed="3.00" length="19.50" shape="-100.89,108.64 -100.65,106.95 -97.80,102.20 -93.05,99.35 -86.40,98.40"/>
    </edge>
    <edge id=":J11_5" function="internal">
        <lane id=":J11_5_0" index="0" speed="3.00" length="9.03" shape="-86.40,108.00 -88.85,108.35 -90.60,109.40 -91.65,111.15 -92.00,113.60"/>
    </edge>
    <edge id=":J11_6" function="internal">
        <lane id=":J11_6_0" index="0" speed="3.00" length="27.20" shape="-86.40,108.00 -113.60,108.00"/>
        <lane id=":J11_6_1" index="1" speed="3.00" length="27.20" shape="-86.40,104.80 -113.60,104.80"/>
        <lane id=":J11_6_2" index="2" speed="3.00" length="27.20" shape="-86.40,101.60 -113.60,101.60"/>
    </edge>
    <edge id=":J11_9" function="internal">
        <lane id=":J11_9_0" index="0" speed="3.00" length="5.01" shape="-86.40,101.60 -91.36,100.89"/>
    </edge>
    <edge id=":J11_21" function="internal">
        <lane id=":J11_21_0" index="0" speed="3.00" length="19.50" shape="-91.36,100.89 -93.05,100.65 -97.80,97.80 -100.65,93.05 -101.60,86.40"/>
    </edge>
    <edge id=":J11_10" function="internal">
        <lane id=":J11_10_0" index="0" speed="3.00" length="9.03" shape="-92.00,86.40 -91.65,88.85 -90.60,90.60 -88.85,91.65 -86.40,92.00"/>
    </edge>
    <edge id=":J11_11" function="internal">
        <lane id=":J11_11_0" index="0" speed="3.00" length="27.20" shape="-92.00,86.40 -92.00,113.60"/>
        <lane id=":J11_11_1" index="1" speed="3.00" length="27.20" shape="-95.20,86.40 -95.20,113.60"/>
        <lane id=":J11_11_2" index="2" speed="3.00" length="27.20" shape="-98.40,86.40 -98.40,113.60"/>
    </edge>
    <edge id=":J11_14" function="internal">
        <lane id=":J11_14_0" index="0" speed="3.00" length="5.01" shape="-98.40,86.40 -99.11,91.36"/>
    </edge>
    <edge id=":J11_22" function="internal">
        <lane id=":J11_22_0" index="0" speed="3.00" length="19.50" shape="-99.11,91.36 -99.35,93.05 -102.20,97.80 -106.95,100.65 -113.60,101.60"/>
    </edge>
    <edge id=":J11_15" function="internal">
        <lane id=":J11_15_0" index="0" speed="3.00" length="9.03" shape="-113.60,92.00 -111.15,91.65 -109.40,90.60 -108.35,88.85 -108.00,86.40"/>
    </edge>
    <edge id=":J11_16" function="internal">
        <lane id=":J11_16_0" index="0" speed="3.00" length="27.20" shape="-113.60,92.00 -86.40,92.00"/>
        <lane id=":J11_16_1" index="1" speed="3.00" length="27.20" shape="-113.60,95.20 -86.40,95.20"/>
        <lane id=":J11_16_2" index="2" speed="3.00" length="27.20" shape="-113.60,98.40 -86.40,98.40"/>
    </edge>
    <edge id=":J11_19" function="internal">
        <lane id=":J11_19_0" index="0" speed="3.00" length="5.01" shape="-113.60,98.40 -108.64,99.11"/>
    </edge>
    <edge id=":J11_23" function="internal">
        <lane id=":J11_23_0" index="0" speed="3.00" length="19.50" shape="-108.64,99.11 -106.95,99.35 -102.20,102.20 -99.35,106.95 -98.40,113.60"/>
    </edge>
    <edge id=":J12_0" function="internal">
        <lane id=":J12_0_0" index="0" speed="3.00" length="9.06" shape="-107.98,213.62 -108.34,211.16 -109.39,209.41 -111.15,208.35 -113.60,208.00"/>
    </edge>
    <edge id=":J12_1" function="internal">
        <lane id=":J12_1_0" index="0" speed="3.00" length="27.22" shape="-107.98,213.62 -108.00,186.40"/>
        <lane id=":J12_1_1" index="1" speed="3.00" length="27.22" shape="-104.78,213.62 -104.80,186.40"/>
        <lane id=":J12_1_2" index="2" speed="3.00" length="27.22" shape="-101.58,213.61 -101.60,186.40"/>
    </edge>
    <edge id=":J12_4" function="internal">
        <lane id=":J12_4_0" index="0" speed="3.00" length="5.03" shape="-101.58,213.61 -100.88,208.63"/>
    </edge>
    <edge id=":J12_20" function="internal">
        <lane id=":J12_20_0" index="0" speed="3.00" length="19.49" shape="-100.88,208.63 -100.64,206.96 -97.79,202.20 -93.04,199.35 -86.39,198.40"/>
    </edge>
    <edge id=":J12_5" function="internal">
        <lane id=":J12_5_0" index="0" speed="3.00" length="9.03" shape="-86.39,208.00 -88.84,208.35 -90.59,209.40 -91.64,211.15 -91.98,213.60"/>
    </edge>
    <edge id=":J12_6" function="internal">
        <lane id=":J12_6_0" index="0" speed="3.00" length="27.21" shape="-86.39,208.00 -113.60,208.00"/>
        <lane id=":J12_6_1" index="1" speed="3.00" length="27.21" shape="-86.39,204.80 -113.60,204.80"/>
        <lane id=":J12_6_2" index="2" speed="3.00" length="27.21" shape="-86.39,201.60 -113.60,201.60"/>
    </edge>
    <edge id=":J12_9" function="internal">
        <lane id=":J12_9_0" index="0" speed="3.00" length="5.02" shape="-86.39,201.60 -91.36,200.89"/>
    </edge>
    <edge id=":J12_21" function="internal">
        <lane id=":J12_21_0" index="0" speed="3.00" length="19.51" shape="-91.36,200.89 -93.04,200.65 -97.80,197.80 -100.65,193.05 -101.60,186.40"/>
    </edge>
    <edge id=":J12_10" function="internal">
        <lane id=":J12_10_0" index="0" speed="3.00" length="9.04" shape="-92.00,186.40 -91.65,188.85 -90.60,190.60 -88.84,191.65 -86.39,192.00"/>
    </edge>
    <edge id=":J12_11" function="internal">
        <lane id=":J12_11_0" index="0" speed="3.00" length="27.21" shape="-92.00,186.40 -91.98,213.60"/>
        <lane id=":J12_11_1" index="1" speed="3.00" length="27.21" shape="-95.20,186.40 -95.18,213.61"/>
        <lane id=":J12_11_2" index="2" speed="3.00" length="27.21" shape="-98.40,186.40 -98.38,213.61"/>
    </edge>
    <edge id=":J12_14" function="internal">
        <lane id=":J12_14_0" index="0" speed="3.00" length="4.99" shape="-98.40,186.40 -99.11,191.34"/>
    </edge>
    <edge id=":J12_22" function="internal">
        <lane id=":J12_22_0" index="0" speed="3.00" length="19.52" shape="-99.11,191.34 -99.35,193.05 -102.20,197.80 -106.95,200.65 -113.60,201.60"/>
    </edge>
    <edge id=":J12_15" function="internal">
        <lane id=":J12_15_0" index="0" speed="3.00" length="9.03" shape="-113.60,192.00 -111.15,191.65 -109.40,190.60 -108.35,188.85 -108.00,186.40"/>
    </edge>
    <edge id=":J12_16" function="internal">
        <lane id=":J12_16_0" index="0" speed="3.00" length="27.21" shape="-113.60,192.00 -86.39,192.00"/>
        <lane id=":J12_16_1" index="1" speed="3.00" length="27.21" shape="-113.60,195.20 -86.39,195.20"/>
        <lane id=":J12_16_2" index="2" speed="3.00" length="27.21" shape="-113.60,198.40 -86.39,198.40"/>
    </edge>
    <edge id=":J12_19" function="internal">
        <lane id=":J12_19_0" index="0" speed="3.00" length="5.01" shape="-113.60,198.40 -108.64,199.11"/>
    </edge>
    <edge id=":J12_23" function="internal">
        <lane id=":J12_23_0" index="0" speed="3.00" length="19.52" shape="-108.64,199.11 -106.95,199.35 -102.20,202.20 -99.34,206.96 -98.38,213.61"/>
    </edge>
    <edge id=":J16_0" function="internal">
        <lane id=":J16_0_0" index="0" speed="3.00" length="9.03" shape="-108.00,13.60 -108.35,11.15 -109.40,9.40 -111.15,8.35 -113.60,8.00"/>
    </edge>
    <edge id=":J16_1" function="internal">
        <lane id=":J16_1_0" index="0" speed="3.00" length="27.20" shape="-108.00,13.60 -108.00,-13.60"/>
        <lane id=":J16_1_1" index="1" speed="3.00" length="27.20" shape="-104.80,13.60 -104.80,-13.60"/>
        <lane id=":J16_1_2" index="2" speed="3.00" length="27.20" shape="-101.60,13.60 -101.60,-13.60"/>
    </edge>
    <edge id=":J16_4" function="internal">
        <lane id=":J16_4_0" index="0" speed="3.00" length="5.01" shape="-101.60,13.60 -100.89,8.64"/>
    </edge>
    <edge id=":J16_20" function="internal">
        <lane id=":J16_20_0" index="0" speed="3.00" length="19.50" shape="-100.89,8.64 -100.65,6.95 -97.80,2.20 -93.05,-0.65 -86.40,-1.60"/>
    </edge>
    <edge id=":J16_5" function="internal">
        <lane id=":J16_5_0" index="0" speed="3.00" length="9.03" shape="-86.40,8.00 -88.85,8.35 -90.60,9.40 -91.65,11.15 -92.00,13.60"/>
    </edge>
    <edge id=":J16_6" function="internal">
        <lane id=":J16_6_0" index="0" speed="3.00" length="27.20" shape="-86.40,8.00 -113.60,8.00"/>
        <lane id=":J16_6_1" index="1" speed="3.00" length="27.20" shape="-86.40,4.80 -113.60,4.80"/>
        <lane id=":J16_6_2" index="2" speed="3.00" length="27.20" shape="-86.40,1.60 -113.60,1.60"/>
    </edge>
    <edge id=":J16_9" function="internal">
        <lane id=":J16_9_0" index="0" speed="3.00" length="5.01" shape="-86.40,1.60 -91.36,0.89"/>
    </edge>
    <edge id=":J16_21" function="internal">
        <lane id=":J16_21_0" index="0" speed="3.00" length="19.50" shape="-91.36,0.89 -93.05,0.65 -97.80,-2.20 -100.65,-6.95 -101.60,-13.60"/>
    </edge>
    <edge id=":J16_10" function="internal">
        <lane id=":J16_10_0" index="0" speed="3.00" length="9.03" shape="-92.00,-13.60 -91.65,-11.15 -90.60,-9.40 -88.85,-8.35 -86.40,-8.00"/>
    </edge>
    <edge id=":J16_11" function="internal">
        <lane id=":J16_11_0" index="0" speed="3.00" length="27.20" shape="-92.00,-13.60 -92.00,13.60"/>
        <lane id=":J16_11_1" index="1" speed="3.00" length="27.20" shape="-95.20,-13.60 -95.20,13.60"/>
        <lane id=":J16_11_2" index="2" speed="3.00" length="27.20" shape="-98.40,-13.60 -98.40,13.60"/>
    </edge>
    <edge id=":J16_14" function="internal">
        <lane id=":J16_14_0" index="0" speed="3.00" length="5.01" shape="-98.40,-13.60 -99.11,-8.64"/>
    </edge>
    <edge id=":J16_22" function="internal">
        <lane id=":J16_22_0" index="0" speed="3.00" length="19.50" shape="-99.11,-8.64 -99.35,-6.95 -102.20,-2.20 -106.95,0.65 -113.60,1.60"/>
    </edge>
    <edge id=":J16_15" function="internal">
        <lane id=":J16_15_0" index="0" speed="3.00" length="9.03" shape="-113.60,-8.00 -111.15,-8.35 -109.40,-9.40 -108.35,-11.15 -108.00,-13.60"/>
    </edge>
    <edge id=":J16_16" function="internal">
        <lane id=":J16_16_0" index="0" speed="3.00" length="27.20" shape="-113.60,-8.00 -86.40,-8.00"/>
        <lane id=":J16_16_1" index="1" speed="3.00" length="27.20" shape="-113.60,-4.80 -86.40,-4.80"/>
        <lane id=":J16_16_2" index="2" speed="3.00" length="27.20" shape="-113.60,-1.60 -86.40,-1.60"/>
    </edge>
    <edge id=":J16_19" function="internal">
        <lane id=":J16_19_0" index="0" speed="3.00" length="5.01" shape="-113.60,-1.60 -108.64,-0.89"/>
    </edge>
    <edge id=":J16_23" function="internal">
        <lane id=":J16_23_0" index="0" speed="3.00" length="19.50" shape="-108.64,-0.89 -106.95,-0.65 -102.20,2.20 -99.35,6.95 -98.40,13.60"/>
    </edge>
    <edge id=":J2_0" function="internal">
        <lane id=":J2_0_0" index="0" speed="3.00" length="9.03" shape="92.00,213.60 91.65,211.15 90.60,209.40 88.85,208.35 86.40,208.00"/>
    </edge>
    <edge id=":J2_1" function="internal">
        <lane id=":J2_1_0" index="0" speed="3.00" length="27.20" shape="92.00,213.60 92.00,186.40"/>
        <lane id=":J2_1_1" index="1" speed="3.00" length="27.20" shape="95.20,213.60 95.20,186.40"/>
        <lane id=":J2_1_2" index="2" speed="3.00" length="27.20" shape="98.40,213.60 98.40,186.40"/>
    </edge>
    <edge id=":J2_4" function="internal">
        <lane id=":J2_4_0" index="0" speed="3.00" length="5.01" shape="98.40,213.60 99.11,208.64"/>
    </edge>
    <edge id=":J2_20" function="internal">
        <lane id=":J2_20_0" index="0" speed="3.00" length="19.50" shape="99.11,208.64 99.35,206.95 102.20,202.20 106.95,199.35 113.60,198.40"/>
    </edge>
    <edge id=":J2_5" function="internal">
        <lane id=":J2_5_0" index="0" speed="3.00" length="9.03" shape="113.60,208.00 111.15,208.35 109.40,209.40 108.35,211.15 108.00,213.60"/>
    </edge>
    <edge id=":J2_6" function="internal">
        <lane id=":J2_6_0" index="0" speed="3.00" length="27.20" shape="113.60,208.00 86.40,208.00"/>
        <lane id=":J2_6_1" index="1" speed="3.00" length="27.20" shape="113.60,204.80 86.40,204.80"/>
        <lane id=":J2_6_2" index="2" speed="3.00" length="27.20" shape="113.60,201.60 86.40,201.60"/>
    </edge>
    <edge id=":J2_9" function="internal">
        <lane id=":J2_9_0" index="0" speed="3.00" length="5.01" shape="113.60,201.60 108.64,200.89"/>
    </edge>
    <edge id=":J2_21" function="internal">
        <lane id=":J2_21_0" index="0" speed="3.00" length="19.50" shape="108.64,200.89 106.95,200.65 102.20,197.80 99.35,193.05 98.40,186.40"/>
    </edge>
    <edge id=":J2_10" function="internal">
        <lane id=":J2_10_0" index="0" speed="3.00" length="9.03" shape="108.00,186.40 108.35,188.85 109.40,190.60 111.15,191.65 113.60,192.00"/>
    </edge>
    <edge id=":J2_11" function="internal">
        <lane id=":J2_11_0" index="0" speed="3.00" length="27.20" shape="108.00,186.40 108.00,213.60"/>
        <lane id=":J2_11_1" index="1" speed="3.00" length="27.20" shape="104.80,186.40 104.80,213.60"/>
        <lane id=":J2_11_2" index="2" speed="3.00" length="27.20" shape="101.60,186.40 101.60,213.60"/>
    </edge>
    <edge id=":J2_14" function="internal">
        <lane id=":J2_14_0" index="0" speed="3.00" length="5.01" shape="101.60,186.40 100.89,191.36"/>
    </edge>
    <edge id=":J2_22" function="internal">
        <lane id=":J2_22_0" index="0" speed="3.00" length="19.50" shape="100.89,191.36 100.65,193.05 97.80,197.80 93.05,200.65 86.40,201.60"/>
    </edge>
    <edge id=":J2_15" function="internal">
        <lane id=":J2_15_0" index="0" speed="3.00" length="9.03" shape="86.40,192.00 88.85,191.65 90.60,190.60 91.65,188.85 92.00,186.40"/>
    </edge>
    <edge id=":J2_16" function="internal">
        <lane id=":J2_16_0" index="0" speed="3.00" length="27.20" shape="86.40,192.00 113.60,192.00"/>
        <lane id=":J2_16_1" index="1" speed="3.00" length="27.20" shape="86.40,195.20 113.60,195.20"/>
        <lane id=":J2_16_2" index="2" speed="3.00" length="27.20" shape="86.40,198.40 113.60,198.40"/>
    </edge>
    <edge id=":J2_19" function="internal">
        <lane id=":J2_19_0" index="0" speed="3.00" length="5.01" shape="86.40,198.40 91.36,199.11"/>
    </edge>
    <edge id=":J2_23" function="internal">
        <lane id=":J2_23_0" index="0" speed="3.00" length="19.50" shape="91.36,199.11 93.05,199.35 97.80,202.20 100.65,206.95 101.60,213.60"/>
    </edge>
    <edge id=":J3_0" function="internal">
        <lane id=":J3_0_0" index="0" speed="3.00" length="9.03" shape="-8.00,213.60 -8.35,211.15 -9.40,209.40 -11.15,208.35 -13.60,208.00"/>
    </edge>
    <edge id=":J3_1" function="internal">
        <lane id=":J3_1_0" index="0" speed="3.00" length="27.20" shape="-8.00,213.60 -8.00,186.40"/>
        <lane id=":J3_1_1" index="1" speed="3.00" length="27.20" shape="-4.80,213.60 -4.80,186.40"/>
        <lane id=":J3_1_2" index="2" speed="3.00" length="27.20" shape="-1.60,213.60 -1.60,186.40"/>
    </edge>
    <edge id=":J3_4" function="internal">
        <lane id=":J3_4_0" index="0" speed="3.00" length="5.01" shape="-1.60,213.60 -0.89,208.64"/>
    </edge>
    <edge id=":J3_20" function="internal">
        <lane id=":J3_20_0" index="0" speed="3.00" length="19.50" shape="-0.89,208.64 -0.65,206.95 2.20,202.20 6.95,199.35 13.60,198.40"/>
    </edge>
    <edge id=":J3_5" function="internal">
        <lane id=":J3_5_0" index="0" speed="3.00" length="9.03" shape="13.60,208.00 11.15,208.35 9.40,209.40 8.35,211.15 8.00,213.60"/>
    </edge>
    <edge id=":J3_6" function="internal">
        <lane id=":J3_6_0" index="0" speed="3.00" length="27.20" shape="13.60,208.00 -13.60,208.00"/>
        <lane id=":J3_6_1" index="1" speed="3.00" length="27.20" shape="13.60,204.80 -13.60,204.80"/>
        <lane id=":J3_6_2" index="2" speed="3.00" length="27.20" shape="13.60,201.60 -13.60,201.60"/>
    </edge>
    <edge id=":J3_9" function="internal">
        <lane id=":J3_9_0" index="0" speed="3.00" length="5.01" shape="13.60,201.60 8.64,200.89"/>
    </edge>
    <edge id=":J3_21" function="internal">
        <lane id=":J3_21_0" index="0" speed="3.00" length="19.50" shape="8.64,200.89 6.95,200.65 2.20,197.80 -0.65,193.05 -1.60,186.40"/>
    </edge>
    <edge id=":J3_10" function="internal">
        <lane id=":J3_10_0" index="0" speed="3.00" length="9.03" shape="8.00,186.40 8.35,188.85 9.40,190.60 11.15,191.65 13.60,192.00"/>
    </edge>
    <edge id=":J3_11" function="internal">
        <lane id=":J3_11_0" index="0" speed="3.00" length="27.20" shape="8.00,186.40 8.00,213.60"/>
        <lane id=":J3_11_1" index="1" speed="3.00" length="27.20" shape="4.80,186.40 4.80,213.60"/>
        <lane id=":J3_11_2" index="2" speed="3.00" length="27.20" shape="1.60,186.40 1.60,213.60"/>
    </edge>
    <edge id=":J3_14" function="internal">
        <lane id=":J3_14_0" index="0" speed="3.00" length="5.01" shape="1.60,186.40 0.89,191.36"/>
    </edge>
    <edge id=":J3_22" function="internal">
        <lane id=":J3_22_0" index="0" speed="3.00" length="19.50" shape="0.89,191.36 0.65,193.05 -2.20,197.80 -6.95,200.65 -13.60,201.60"/>
    </edge>
    <edge id=":J3_15" function="internal">
        <lane id=":J3_15_0" index="0" speed="3.00" length="9.03" shape="-13.60,192.00 -11.15,191.65 -9.40,190.60 -8.35,188.85 -8.00,186.40"/>
    </edge>
    <edge id=":J3_16" function="internal">
        <lane id=":J3_16_0" index="0" speed="3.00" length="27.20" shape="-13.60,192.00 13.60,192.00"/>
        <lane id=":J3_16_1" index="1" speed="3.00" length="27.20" shape="-13.60,195.20 13.60,195.20"/>
        <lane id=":J3_16_2" index="2" speed="3.00" length="27.20" shape="-13.60,198.40 13.60,198.40"/>
    </edge>
    <edge id=":J3_19" function="internal">
        <lane id=":J3_19_0" index="0" speed="3.00" length="5.01" shape="-13.60,198.40 -8.64,199.11"/>
    </edge>
    <edge id=":J3_23" function="internal">
        <lane id=":J3_23_0" index="0" speed="3.00" length="19.50" shape="-8.64,199.11 -6.95,199.35 -2.20,202.20 0.65,206.95 1.60,213.60"/>
    </edge>
    <edge id=":J8_0" function="internal">
        <lane id=":J8_0_0" index="0" speed="3.00" length="9.03" shape="-8.00,13.60 -8.35,11.15 -9.40,9.40 -11.15,8.35 -13.60,8.00"/>
    </edge>
    <edge id=":J8_1" function="internal">
        <lane id=":J8_1_0" index="0" speed="3.00" length="27.20" shape="-8.00,13.60 -8.00,-13.60"/>
        <lane id=":J8_1_1" index="1" speed="3.00" length="27.20" shape="-4.80,13.60 -4.80,-13.60"/>
        <lane id=":J8_1_2" index="2" speed="3.00" length="27.20" shape="-1.60,13.60 -1.60,-13.60"/>
    </edge>
    <edge id=":J8_4" function="internal">
        <lane id=":J8_4_0" index="0" speed="3.00" length="5.01" shape="-1.60,13.60 -0.89,8.64"/>
    </edge>
    <edge id=":J8_20" function="internal">
        <lane id=":J8_20_0" index="0" speed="3.00" length="19.50" shape="-0.89,8.64 -0.65,6.95 2.20,2.20 6.95,-0.65 13.60,-1.60"/>
    </edge>
    <edge id=":J8_5" function="internal">
        <lane id=":J8_5_0" index="0" speed="3.00" length="9.03" shape="13.60,8.00 11.15,8.35 9.40,9.40 8.35,11.15 8.00,13.60"/>
    </edge>
    <edge id=":J8_6" function="internal">
        <lane id=":J8_6_0" index="0" speed="3.00" length="27.20" shape="13.60,8.00 -13.60,8.00"/>
        <lane id=":J8_6_1" index="1" speed="3.00" length="27.20" shape="13.60,4.80 -13.60,4.80"/>
        <lane id=":J8_6_2" index="2" speed="3.00" length="27.20" shape="13.60,1.60 -13.60,1.60"/>
    </edge>
    <edge id=":J8_9" function="internal">
        <lane id=":J8_9_0" index="0" speed="3.00" length="5.01" shape="13.60,1.60 8.64,0.89"/>
    </edge>
    <edge id=":J8_21" function="internal">
        <lane id=":J8_21_0" index="0" speed="3.00" length="19.50" shape="8.64,0.89 6.95,0.65 2.20,-2.20 -0.65,-6.95 -1.60,-13.60"/>
    </edge>
    <edge id=":J8_10" function="internal">
        <lane id=":J8_10_0" index="0" speed="3.00" length="9.03" shape="8.00,-13.60 8.35,-11.15 9.40,-9.40 11.15,-8.35 13.60,-8.00"/>
    </edge>
    <edge id=":J8_11" function="internal">
        <lane id=":J8_11_0" index="0" speed="3.00" length="27.20" shape="8.00,-13.60 8.00,13.60"/>
        <lane id=":J8_11_1" index="1" speed="3.00" length="27.20" shape="4.80,-13.60 4.80,13.60"/>
        <lane id=":J8_11_2" index="2" speed="3.00" length="27.20" shape="1.60,-13.60 1.60,13.60"/>
    </edge>
    <edge id=":J8_14" function="internal">
        <lane id=":J8_14_0" index="0" speed="3.00" length="5.01" shape="1.60,-13.60 0.89,-8.64"/>
    </edge>
    <edge id=":J8_22" function="internal">
        <lane id=":J8_22_0" index="0" speed="3.00" length="19.50" shape="0.89,-8.64 0.65,-6.95 -2.20,-2.20 -6.95,0.65 -13.60,1.60"/>
    </edge>
    <edge id=":J8_15" function="internal">