<?xml version="1.0" encoding="UTF-8"?>

<!-- generated on 2023-09-07 09:43:04 by Eclipse SUMO netedit Version 1.14.1
<configuration xmlns:xsi="http://www.w3.org/2001/XMLSchema-instance" xsi:noNamespaceSchemaLocation="http://sumo.dlr.de/xsd/netconvertConfiguration.xsd">

    <input>
        <sumo-net-file value="C:\Users\user\Python_Anaconda\Tasks\08_Traffic%20Congestion%20Control%20with%20kalman%20filter%20and%20graph%20state%20and%20GCN\TCC-MI\Networks\environment\environment.net.xml"/>
    </input>

    <output>
        <output-file value="C:\Users\user\Python_Anaconda\Tasks\08_Traffic%20Congestion%20Control%20with%20kalman%20filter%20and%20graph%20state%20and%20GCN\TCC-MI\Networks\environment\environment.net.xml"/>
    </output>

    <processing>
        <geometry.min-radius.fix.railways value="false"/>
        <geometry.max-grade.fix value="false"/>
        <offset.disable-normalization value="true"/>
        <lefthand value="false"/>
    </processing>

    <junctions>
        <no-turnarounds value="true"/>
        <junctions.corner-detail value="5"/>
        <junctions.limit-turn-speed value="5.5"/>
        <rectangular-lane-cut value="false"/>
    </junctions>

    <pedestrian>
        <walkingareas value="false"/>
    </pedestrian>

</configuration>
-->

<net version="1.9" junctionCornerDetail="5" limitTurnSpeed="5.50" xmlns:xsi="http://www.w3.org/2001/XMLSchema-instance" xsi:noNamespaceSchemaLocation="http://sumo.dlr.de/xsd/net_file.xsd">

    <location netOffset="0.00,0.00" convBoundary="-100.00,0.00,200.23,300.00" origBoundary="-10000000000.00,-10000000000.00,10000000000.00,10000000000.00" projParameter="!"/>

    <edge id=":J0_0" function="internal">
        <lane id=":J0_0_0" index="0" speed="3.00" length="9.03" shape="-8.00,113.60 -8.35,111.15 -9.40,109.40 -11.15,108.35 -13.60,108.00"/>
    </edge>
    <edge id=":J0_1" function="internal">
        <lane id=":J0_1_0" index="0" speed="3.00" length="27.20" shape="-8.00,113.60 -8.00,86.40"/>
        <lane id=":J0_1_1" index="1" speed="3.00" length="27.20" shape="-4.80,113.60 -4.80,86.40"/>
        <lane id=":J0_1_2" index="2" speed="3.00" length="27.20" shape="-1.60,113.60 -1.60,86.40"/>
    </edge>
    <edge id=":J0_4" function="internal">
        <lane id=":J0_4_0" index="0" speed="3.00" length="5.01" shape="-1.60,113.60 -0.89,108.64"/>
    </edge>
    <edge id=":J0_20" function="internal">
        <lane id=":J0_20_0" index="0" speed="3.00" length="19.50" shape="-0.89,108.64 -0.65,106.95 2.20,102.20 6.95,99.35 13.60,98.40"/>
    </edge>
    <edge id=":J0_5" function="internal">
        <lane id=":J0_5_0" index="0" speed="3.00" length="9.03" shape="13.60,108.00 11.15,108.35 9.40,109.40 8.35,111.15 8.00,113.60"/>
    </edge>
    <edge id=":J0_6" function="internal">
        <lane id=":J0_6_0" index="0" speed="3.00" length="27.20" shape="13.60,108.00 -13.60,108.00"/>
        <lane id=":J0_6_1" index="1" speed="3.00" length="27.20" shape="13.60,104.80 -13.60,104.80"/>
        <lane id=":J0_6_2" index="2" speed="3.00" length="27.20" shape="13.60,101.60 -13.60,101.60"/>
    </edge>
    <edge id=":J0_9" function="internal">
        <lane id=":J0_9_0" index="0" speed="3.00" length="5.01" shape="13.60,101.60 8.64,100.89"/>
    </edge>
    <edge id=":J0_21" function="internal">
        <lane id=":J0_21_0" index="0" speed="3.00" length="19.50" shape="8.64,100.89 6.95,100.65 2.20,97.80 -0.65,93.05 -1.60,86.40"/>
    </edge>
    <edge id=":J0_10" function="internal">
        <lane id=":J0_10_0" index="0" speed="3.00" length="9.03" shape="8.00,86.40 8.35,88.85 9.40,90.60 11.15,91.65 13.60,92.00"/>
    </edge>
    <edge id=":J0_11" function="internal">
        <lane id=":J0_11_0" index="0" speed="3.00" length="27.20" shape="8.00,86.40 8.00,113.60"/>
        <lane id=":J0_11_1" index="1" speed="3.00" length="27.20" shape="4.80,86.40 4.80,113.60"/>
        <lane id=":J0_11_2" index="2" speed="3.00" length="27.20" shape="1.60,86.40 1.60,113.60"/>
    </edge>
    <edge id=":J0_14" function="internal">
        <lane id=":J0_14_0" index="0" speed="3.00" length="5.01" shape="1.60,86.40 0.89,91.36"/>
    </edge>
    <edge id=":J0_22" function="internal">
        <lane id=":J0_22_0" index="0" speed="3.00" length="19.50" shape="0.89,91.36 0.65,93.05 -2.20,97.80 -6.95,100.65 -13.60,101.60"/>
    </edge>
    <edge id=":J0_15" function="internal">
        <lane id=":J0_15_0" index="0" speed="3.00" length="9.03" shape="-13.60,92.00 -11.15,91.65 -9.40,90.60 -8.35,88.85 -8.00,86.40"/>
    </edge>
    <edge id=":J0_16" function="internal">
        <lane id=":J0_16_0" index="0" speed="3.00" length="27.20" shape="-13.60,92.00 13.60,92.00"/>
        <lane id=":J0_16_1" index="1" speed="3.00" length="27.20" shape="-13.60,95.20 13.60,95.20"/>
        <lane id=":J0_16_2" index="2" speed="3.00" length="27.20" shape="-13.60,98.40 13.60,98.40"/>
    </edge>
    <edge id=":J0_19" function="internal">
        <lane id=":J0_19_0" index="0" speed="3.00" length="5.01" shape="-13.60,98.40 -8.64,99.11"/>
    </edge>
    <edge id=":J0_23" function="internal">
        <lane id=":J0_23_0" index="0" speed="3.00" length="19.50" shape="-8.64,99.11 -6.95,99.35 -2.20,102.20 0.65,106.95 1.60,113.60"/>
    </edge>
    <edge id=":J1_0" function="internal">
        <lane id=":J1_0_0" index="0" speed="3.00" length="9.03" shape="92.00,113.60 91.65,111.15 90.60,109.40 88.85,108.35 86.40,108.00"/>
    </edge>
    <edge id=":J1_1" function="internal">
        <lane id=":J1_1_0" index="0" speed="3.00" length="27.20" shape="92.00,113.60 92.00,86.40"/>
        <lane id=":J1_1_1" index="1" speed="3.00" length="27.20" shape="95.20,113.60 95.20,86.40"/>
        <lane id=":J1_1_2" index="2" speed="3.00" length="27.20" shape="98.40,113.60 98.40,86.40"/>
    </edge>
    <edge id=":J1_4" function="internal">
        <lane id=":J1_4_0" index="0" speed="3.00" length="5.01" shape="98.40,113.60 99.11,108.64"/>
    </edge>
    <edge id=":J1_20" function="internal">
        <lane id=":J1_20_0" index="0" speed="3.00" length="19.50" shape="99.11,108.64 99.35,106.95 102.20,102.20 106.95,99.35 113.60,98.40"/>
    </edge>
    <edge id=":J1_5" function="internal">
        <lane id=":J1_5_0" index="0" speed="3.00" length="9.03" shape="113.60,108.00 111.15,108.35 109.40,109.40 108.35,111.15 108.00,113.60"/>
    </edge>
    <edge id=":J1_6" function="internal">
        <lane id=":J1_6_0" index="0" speed="3.00" length="27.20" shape="113.60,108.00 86.40,108.00"/>
        <lane id=":J1_6_1" index="1" speed="3.00" length="27.20" shape="113.60,104.80 86.40,104.80"/>
        <lane id=":J1_6_2" index="2" speed="3.00" length="27.20" shape="113.60,101.60 86.40,101.60"/>
    </edge>
    <edge id=":J1_9" function="internal">
        <lane id=":J1_9_0" index="0" speed="3.00" length="5.01" shape="113.60,101.60 108.64,100.89"/>
    </edge>
    <edge id=":J1_21" function="internal">
        <lane id=":J1_21_0" index="0" speed="3.00" length="19.50" shape="108.64,100.89 106.95,100.65 102.20,97.80 99.35,93.05 98.40,86.40"/>
    </edge>
    <edge id=":J1_10" function="internal">
        <lane id=":J1_10_0" index="0" speed="3.00" length="9.03" shape="108.00,86.40 108.35,88.85 109.40,90.60 111.15,91.65 113.60,92.00"/>
    </edge>
    <edge id=":J1_11" function="internal">
        <lane id=":J1_11_0" index="0" speed="3.00" length="27.20" shape="108.00,86.40 108.00,113.60"/>
        <lane id=":J1_11_1" index="1" speed="3.00" length="27.20" shape="104.80,86.40 104.80,113.60"/>
        <lane id=":J1_11_2" index="2" speed="3.00" length="27.20" shape="101.60,86.40 101.60,113.60"/>
    </edge>
    <edge id=":J1_14" function="internal">
        <lane id=":J1_14_0" index="0" speed="3.00" length="5.01" shape="101.60,86.40 100.89,91.36"/>
    </edge>
    <edge id=":J1_22" function="internal">
        <lane id=":J1_22_0" index="0" speed="3.00" length="19.50" shape="100.89,91.36 100.65,93.05 97.80,97.80 93.05,100.65 86.40,101.60"/>
    </edge>
    <edge id=":J1_15" function="internal">
        <lane id=":J1_15_0" index="0" speed="3.00" length="9.03" shape="86.40,92.00 88.85,91.65 90.60,90.60 91.65,88.85 92.00,86.40"/>
    </edge>
    <edge id=":J1_16" function="internal">
        <lane id=":J1_16_0" index="0" speed="3.00" length="27.20" shape="86.40,92.00 113.60,92.00"/>
        <lane id=":J1_16_1" index="1" speed="3.00" length="27.20" shape="86.40,95.20 113.60,95.20"/>
        <lane id=":J1_16_2" index="2" speed="3.00" length="27.20" shape="86.40,98.40 113.60,98.40"/>
    </edge>
    <edge id=":J1_19" function="internal">
        <lane id=":J1_19_0" index="0" speed="3.00" length="5.01" shape="86.40,98.40 91.36,99.11"/>
    </edge>
    <edge id=":J1_23" function="internal">
        <lane id=":J1_23_0" index="0" speed="3.00" length="19.50" shape="91.36,99.11 93.05,99.35 97.80,102.20 100.65,106.95 101.60,113.60"/>
    </edge>
    <edge id=":J2_0" function="internal">
        <lane id=":J2_0_0" index="0" speed="3.00" length="9.03" shape="92.00,213.60 91.65,211.15 90.60,209.40 88.85,208.35 86.40,208.00"/>
    </edge>
    <edge id=":J2_1" function="internal">
        <lane id=":J2_1_0" index="0" speed="3.00" length="27.20" shape="92.00,213.60 92.00,186.40"/>
        <lane id=":J2_1_1" index="1" speed="3.00" length="27.20" shape="95.20,213.60 95.20,186.40"/>
        <lane id=":J2_1_2" index="2" speed="3.00" length="27.20" shape="98.40,213.60 98.40,186.40"/>
    </edge>
    <edge id=":J2_4" function="internal">
        <lane id=":J2_4_0" index="0" speed="3.00" length="5.01" shape="98.40,213.60 99.11,208.64"/>
    </edge>
    <edge id=":J2_20" function="internal">
        <lane id=":J2_20_0" index="0" speed="3.00" length="19.50" shape="99.11,208.64 99.35,206.95 102.20,202.20 106.95,199.35 113.60,198.40"/>
    </edge>
    <edge id=":J2_5" function="internal">
        <lane id=":J2_5_0" index="0" speed="3.00" length="9.03" shape="113.60,208.00 111.15,208.35 109.40,209.40 108.35,211.15 108.00,213.60"/>
    </edge>
    <edge id=":J2_6" function="internal">
        <lane id=":J2_6_0" index="0" speed="3.00" length="27.20" shape="113.60,208.00 86.40,208.00"/>
        <lane id=":J2_6_1" index="1" speed="3.00" length="27.20" shape="113.60,204.80 86.40,204.80"/>
        <lane id=":J2_6_2" index="2" speed="3.00" length="27.20" shape="113.60,201.60 86.40,201.60"/>
    </edge>
    <edge id=":J2_9" function="internal">
        <lane id=":J2_9_0" index="0" speed="3.00" length="5.01" shape="113.60,201.60 108.64,200.89"/>
    </edge>
    <edge id=":J2_21" function="internal">
        <lane id=":J2_21_0" index="0" speed="3.00" length="19.50" shape="108.64,200.89 106.95,200.65 102.20,197.80 99.35,193.05 98.40,186.40"/>
    </edge>
    <edge id=":J2_10" function="internal">
        <lane id=":J2_10_0" index="0" speed="3.00" length="9.03" shape="108.00,186.40 108.35,188.85 109.40,190.60 111.15,191.65 113.60,192.00"/>
    </edge>
    <edge id=":J2_11" function="internal">
        <lane id=":J2_11_0" index="0" speed="3.00" length="27.20" shape="108.00,186.40 108.00,213.60"/>
        <lane id=":J2_11_1" index="1" speed="3.00" length="27.20" shape="104.80,186.40 104.80,213.60"/>
        <lane id=":J2_11_2" index="2" speed="3.00" length="27.20" shape="101.60,186.40 101.60,213.60"/>
    </edge>
    <edge id=":J2_14" function="internal">
        <lane id=":J2_14_0" index="0" speed="3.00" length="5.01" shape="101.60,186.40 100.89,191.36"/>
    </edge>
    <edge id=":J2_22" function="internal">
        <lane id=":J2_22_0" index="0" speed="3.00" length="19.50" shape="100.89,191.36 100.65,193.05 97.80,197.80 93.05,200.65 86.40,201.60"/>
    </edge>
    <edge id=":J2_15" function="internal">
        <lane id=":J2_15_0" index="0" speed="3.00" length="9.03" shape="86.40,192.00 88.85,191.65 90.60,190.60 91.65,188.85 92.00,186.40"/>
    </edge>
    <edge id=":J2_16" function="internal">
        <lane id=":J2_16_0" index="0" speed="3.00" length="27.20" shape="86.40,192.00 113.60,192.00"/>
        <lane id=":J2_16_1" index="1" speed="3.00" length="27.20" shape="86.40,195.20 113.60,195.20"/>
        <lane id=":J2_16_2" index="2" speed="3.00" length="27.20" shape="86.40,198.40 113.60,198.40"/>
    </edge>
    <edge id=":J2_19" function="internal">
        <lane id=":J2_19_0" index="0" speed="3.00" length="5.01" shape="86.40,198.40 91.36,199.11"/>
    </edge>
    <edge id=":J2_23" function="internal">
        <lane id=":J2_23_0" index="0" speed="3.00" length="19.50" shape="91.36,199.11 93.05,199.35 97.80,202.20 100.65,206.95 101.60,213.60"/>
    </edge>
    <edge id=":J3_0" function="internal">
        <lane id=":J3_0_0" index="0" speed="3.00" length="9.03" shape="-8.00,213.60 -8.35,211.15 -9.40,209.40 -11.15,208.35 -13.60,208.00"/>
    </edge>
    <edge id=":J3_1" function="internal">
        <lane id=":J3_1_0" index="0" speed="3.00" length="27.20" shape="-8.00,213.60 -8.00,186.40"/>
        <lane id=":J3_1_1" index="1" speed="3.00" length="27.20" shape="-4.80,213.60 -4.80,186.40"/>
        <lane id=":J3_1_2" index="2" speed="3.00" length="27.20" shape="-1.60,213.60 -1.60,186.40"/>
    </edge>
    <edge id=":J3_4" function="internal">
        <lane id=":J3_4_0" index="0" speed="3.00" length="5.01" shape="-1.60,213.60 -0.89,208.64"/>
    </edge>
    <edge id=":J3_20" function="internal">
        <lane id=":J3_20_0" index="0" speed="3.00" length="19.50" shape="-0.89,208.64 -0.65,206.95 2.20,202.20 6.95,199.35 13.60,198.40"/>
    </edge>
    <edge id=":J3_5" function="internal">
        <lane id=":J3_5_0" index="0" speed="3.00" length="9.03" shape="13.60,208.00 11.15,208.35 9.40,209.40 8.35,211.15 8.00,213.60"/>
    </edge>
    <edge id=":J3_6" function="internal">
        <lane id=":J3_6_0" index="0" speed="3.00" length="27.20" shape="13.60,208.00 -13.60,208.00"/>
        <lane id=":J3_6_1" index="1" speed="3.00" length="27.20" shape="13.60,204.80 -13.60,204.80"/>
        <lane id=":J3_6_2" index="2" speed="3.00" length="27.20" shape="13.60,201.60 -13.60,201.60"/>
    </edge>
    <edge id=":J3_9" function="internal">
        <lane id=":J3_9_0" index="0" speed="3.00" length="5.01" shape="13.60,201.60 8.64,200.89"/>
    </edge>
    <edge id=":J3_21" function="internal">
        <lane id=":J3_21_0" index="0" speed="3.00" length="19.50" shape="8.64,200.89 6.95,200.65 2.20,197.80 -0.65,193.05 -1.60,186.40"/>
    </edge>
    <edge id=":J3_10" function="internal">
        <lane id=":J3_10_0" index="0" speed="3.00" length="9.03" shape="8.00,186.40 8.35,188.85 9.40,190.60 11.15,191.65 13.60,192.00"/>
    </edge>
    <edge id=":J3_11" function="internal">
        <lane id=":J3_11_0" index="0" speed="3.00" length="27.20" shape="8.00,186.40 8.00,213.60"/>
        <lane id=":J3_11_1" index="1" speed="3.00" length="27.20" shape="4.80,186.40 4.80,213.60"/>
        <lane id=":J3_11_2" index="2" speed="3.00" length="27.20" shape="1.60,186.40 1.60,213.60"/>
    </edge>
    <edge id=":J3_14" function="internal">
        <lane id=":J3_14_0" index="0" speed="3.00" length="5.01" shape="1.60,186.40 0.89,191.36"/>
    </edge>
    <edge id=":J3_22" function="internal">
        <lane id=":J3_22_0" index="0" speed="3.00" length="19.50" shape="0.89,191.36 0.65,193.05 -2.20,197.80 -6.95,200.65 -13.60,201.60"/>
    </edge>
    <edge id=":J3_15" function="internal">
        <lane id=":J3_15_0" index="0" speed="3.00" length="9.03" shape="-13.60,192.00 -11.15,191.65 -9.40,190.60 -8.35,188.85 -8.00,186.40"/>
    </edge>
    <edge id=":J3_16" function="internal">
        <lane id=":J3_16_0" index="0" speed="3.00" length="27.20" shape="-13.60,192.00 13.60,192.00"/>
        <lane id=":J3_16_1" index="1" speed="3.00" length="27.20" shape="-13.60,195.20 13.60,195.20"/>
        <lane id=":J3_16_2" index="2" speed="3.00" length="27.20" shape="-13.60,198.40 13.60,198.40"/>
    </edge>
    <edge id=":J3_19" function="internal">
        <lane id=":J3_19_0" index="0" speed="3.00" length="5.01" shape="-13.60,198.40 -8.64,199.11"/>
    </edge>
    <edge id=":J3_23" function="internal">
        <lane id=":J3_23_0" index="0" speed="3.00" length="19.50" shape="-8.64,199.11 -6.95,199.35 -2.20,202.20 0.65,206.95 1.60,213.60"/>
    </edge>

    <edge id="-E0" from="J1" to="J0" priority="-1" length="300.00">
        <lane id="-E0_0" index="0" speed="3.00" length="300.00" shape="86.40,108.00 13.60,108.00"/>
        <lane id="-E0_1" index="1" speed="3.00" length="300.00" shape="86.40,104.80 13.60,104.80"/>
        <lane id="-E0_2" index="2" speed="3.00" length="300.00" shape="86.40,101.60 13.60,101.60"/>
    </edge>
    <edge id="-E1" from="J2" to="J1" priority="-1" length="300.00">
        <lane id="-E1_0" index="0" speed="3.00" length="300.00" shape="92.00,186.40 92.00,113.60"/>
        <lane id="-E1_1" index="1" speed="3.00" length="300.00" shape="95.20,186.40 95.20,113.60"/>
        <lane id="-E1_2" index="2" speed="3.00" length="300.00" shape="98.40,186.40 98.40,113.60"/>
    </edge>
    <edge id="-E10" from="J10" to="J1" priority="-1" length="300.00">
        <lane id="-E10_0" index="0" speed="3.00" length="300.00" shape="200.00,108.00 113.60,108.00"/>
        <lane id="-E10_1" index="1" speed="3.00" length="300.00" shape="200.00,104.80 113.60,104.80"/>
        <lane id="-E10_2" index="2" speed="3.00" length="300.00" shape="200.00,101.60 113.60,101.60"/>
    </edge>
    <edge id="-E11" from="J11" to="J0" priority="-1" length="300.00">
        <lane id="-E11_0" index="0" speed="3.00" length="300.00" shape="-100.00,92.00 -13.60,92.00"/>
        <lane id="-E11_1" index="1" speed="3.00" length="300.00" shape="-100.00,95.20 -13.60,95.20"/>
        <lane id="-E11_2" index="2" speed="3.00" length="300.00" shape="-100.00,98.40 -13.60,98.40"/>
    </edge>
    <edge id="-E12" from="J12" to="J3" priority="-1" length="300.00">
        <lane id="-E12_0" index="0" speed="3.00" length="300.00" shape="-100.00,192.00 -13.60,192.00"/>
        <lane id="-E12_1" index="1" speed="3.00" length="300.00" shape="-100.00,195.20 -13.60,195.20"/>
        <lane id="-E12_2" index="2" speed="3.00" length="300.00" shape="-100.00,198.40 -13.60,198.40"/>
    </edge>
    <edge id="-E2" from="J3" to="J2" priority="-1" length="300.00">
        <lane id="-E2_0" index="0" speed="3.00" length="300.00" shape="13.60,192.00 86.40,192.00"/>
        <lane id="-E2_1" index="1" speed="3.00" length="300.00" shape="13.60,195.20 86.40,195.20"/>
        <lane id="-E2_2" index="2" speed="3.00" length="300.00" shape="13.60,198.40 86.40,198.40"/>
    </edge>
    <edge id="-E3" from="J0" to="J3" priority="-1" length="300.00">
        <lane id="-E3_0" index="0" speed="3.00" length="300.00" shape="8.00,113.60 8.00,186.40"/>
        <lane id="-E3_1" index="1" speed="3.00" length="300.00" shape="4.80,113.60 4.80,186.40"/>
        <lane id="-E3_2" index="2" speed="3.00" length="300.00" shape="1.60,113.60 1.60,186.40"/>
    </edge>
    <edge id="-E5" from="J5" to="J2" priority="-1" length="300.00">
        <lane id="-E5_0" index="0" speed="3.00" length="300.00" shape="92.00,300.00 92.00,213.60"/>
        <lane id="-E5_1" index="1" speed="3.00" length="300.00" shape="95.20,300.00 95.20,213.60"/>
        <lane id="-E5_2" index="2" speed="3.00" length="300.00" shape="98.40,300.00 98.40,213.60"/>
    </edge>
    <edge id="-E6" from="J6" to="J2" priority="-1" length="300.00">
        <lane id="-E6_0" index="0" speed="3.00" length="300.00" shape="200.00,208.00 113.60,208.00"/>
        <lane id="-E6_1" index="1" speed="3.00" length="300.00" shape="200.00,204.80 113.60,204.80"/>
        <lane id="-E6_2" index="2" speed="3.00" length="300.00" shape="200.00,201.60 113.60,201.60"/>
    </edge>
    <edge id="-E7" from="J7" to="J3" priority="-1" length="300.00">
        <lane id="-E7_0" index="0" speed="3.00" length="300.00" shape="-8.00,300.00 -8.00,213.60"/>
        <lane id="-E7_1" index="1" speed="3.00" length="300.00" shape="-4.80,300.00 -4.80,213.60"/>
        <lane id="-E7_2" index="2" speed="3.00" length="300.00" shape="-1.60,300.00 -1.60,213.60"/>
    </edge>
    <edge id="-E8" from="J8" to="J0" priority="-1" length="300.00">
        <lane id="-E8_0" index="0" speed="3.00" length="300.00" shape="8.00,0.00 8.00,86.40"/>
        <lane id="-E8_1" index="1" speed="3.00" length="300.00" shape="4.80,0.00 4.80,86.40"/>
        <lane id="-E8_2" index="2" speed="3.00" length="300.00" shape="1.60,0.00 1.60,86.40"/>
    </edge>
    <edge id="-E9" from="J9" to="J1" priority="-1" length="300.00">
        <lane id="-E9_0" index="0" speed="3.00" length="300.00" shape="108.00,0.00 108.00,86.40"/>
        <lane id="-E9_1" index="1" speed="3.00" length="300.00" shape="104.80,0.00 104.80,86.40"/>
        <lane id="-E9_2" index="2" speed="3.00" length="300.00" shape="101.60,0.00 101.60,86.40"/>
    </edge>
    <edge id="E0" from="J0" to="J1" priority="-1" length="300.00">
        <lane id="E0_0" index="0" speed="3.00" length="300.00" shape="13.60,92.00 86.40,92.00"/>
        <lane id="E0_1" index="1" speed="3.00" length="300.00" shape="13.60,95.20 86.40,95.20"/>
        <lane id="E0_2" index="2" speed="3.00" length="300.00" shape="13.60,98.40 86.40,98.40"/>
    </edge>
    <edge id="E1" from="J1" to="J2" priority="-1" length="300.00">
        <lane id="E1_0" index="0" speed="3.00" length="300.00" shape="108.00,113.60 108.00,186.40"/>
        <lane id="E1_1" index="1" speed="3.00" length="300.00" shape="104.80,113.60 104.80,186.40"/>
        <lane id="E1_2" index="2" speed="3.00" length="300.00" shape="101.60,113.60 101.60,186.40"/>
    </edge>
    <edge id="E10" from="J1" to="J10" priority="-1" length="300.00">
        <lane id="E10_0" index="0" speed="3.00" length="300.00" shape="113.60,92.00 200.00,92.00"/>
        <lane id="E10_1" index="1" speed="3.00" length="300.00" shape="113.60,95.20 200.00,95.20"/>
        <lane id="E10_2" index="2" speed="3.00" length="300.00" shape="113.60,98.40 200.00,98.40"/>
    </edge>
    <edge id="E11" from="J0" to="J11" priority="-1" length="300.00">
        <lane id="E11_0" index="0" speed="3.00" length="300.00" shape="-13.60,108.00 -100.00,108.00"/>
        <lane id="E11_1" index="1" speed="3.00" length="300.00" shape="-13.60,104.80 -100.00,104.80"/>
        <lane id="E11_2" index="2" speed="3.00" length="300.00" shape="-13.60,101.60 -100.00,101.60"/>
    </edge>
    <edge id="E12" from="J3" to="J12" priority="-1" length="300.00">
        <lane id="E12_0" index="0" speed="3.00" length="300.00" shape="-13.60,208.00 -100.00,208.00"/>
        <lane id="E12_1" index="1" speed="3.00" length="300.00" shape="-13.60,204.80 -100.00,204.80"/>
        <lane id="E12_2" index="2" speed="3.00" length="300.00" shape="-13.60,201.60 -100.00,201.60"/>
    </edge>
    <edge id="E2" from="J2" to="J3" priority="-1" length="300.00">
        <lane id="E2_0" index="0" speed="3.00" length="300.00" shape="86.40,208.00 13.60,208.00"/>
        <lane id="E2_1" index="1" speed="3.00" length="300.00" shape="86.40,204.80 13.60,204.80"/>
        <lane id="E2_2" index="2" speed="3.00" length="300.00" shape="86.40,201.60 13.60,201.60"/>
    </edge>
    <edge id="E3" from="J3" to="J0" priority="-1" length="300.00">
        <lane id="E3_0" index="0" speed="3.00" length="300.00" shape="-8.00,186.40 -8.00,113.60"/>
        <lane id="E3_1" index="1" speed="3.00" length="300.00" shape="-4.80,186.40 -4.80,113.60"/>
        <lane id="E3_2" index="2" speed="3.00" length="300.00" shape="-1.60,186.40 -1.60,113.60"/>
    </edge>
    <edge id="E5" from="J2" to="J5" priority="-1" length="300.00">
        <lane id="E5_0" index="0" speed="3.00" length="300.00" shape="108.00,213.60 108.00,300.00"/>
        <lane id="E5_1" index="1" speed="3.00" length="300.00" shape="104.80,213.60 104.80,300.00"/>
        <lane id="E5_2" index="2" speed="3.00" length="300.00" shape="101.60,213.60 101.60,300.00"/>
    </edge>
    <edge id="E6" from="J2" to="J6" priority="-1" spreadType="center" length="300.00" shape="100.00,195.20 200.23,195.21">
        <lane id="E6_0" index="0" speed="3.00" length="300.00" shape="113.60,192.00 200.00,192.01"/>
        <lane id="E6_1" index="1" speed="3.00" length="300.00" shape="113.60,195.20 200.00,195.21"/>
        <lane id="E6_2" index="2" speed="3.00" length="300.00" shape="113.60,198.40 200.00,198.41"/>
    </edge>
    <edge id="E7" from="J3" to="J7" priority="-1" length="300.00">
        <lane id="E7_0" index="0" speed="3.00" length="300.00" shape="8.00,213.60 8.00,300.00"/>
        <lane id="E7_1" index="1" speed="3.00" length="300.00" shape="4.80,213.60 4.80,300.00"/>
        <lane id="E7_2" index="2" speed="3.00" length="300.00" shape="1.60,213.60 1.60,300.00"/>
    </edge>
    <edge id="E8" from="J0" to="J8" priority="-1" length="300.00">
        <lane id="E8_0" index="0" speed="3.00" length="300.00" shape="-8.00,86.40 -8.00,0.00"/>
        <lane id="E8_1" index="1" speed="3.00" length="300.00" shape="-4.80,86.40 -4.80,0.00"/>
        <lane id="E8_2" index="2" speed="3.00" length="300.00" shape="-1.60,86.40 -1.60,0.00"/>
    </edge>
    <edge id="E9" from="J1" to="J9" priority="-1" length="300.00">
        <lane id="E9_0" index="0" speed="3.00" length="300.00" shape="92.00,86.40 92.00,0.00"/>
        <lane id="E9_1" index="1" speed="3.00" length="300.00" shape="95.20,86.40 95.20,0.00"/>
        <lane id="E9_2" index="2" speed="3.00" length="300.00" shape="98.40,86.40 98.40,0.00"/>
    </edge>

    <tlLogic id="J0" type="static" programID="0" offset="0">
        <phase duration="41" state="GGGGgrrrrrGGGGgrrrrr"/>
        <phase duration="3"  state="yyyyyrrrrryyyyyrrrrr"/>
        <phase duration="1"  state="rrrrrrrrrrrrrrrrrrrr"/>
        <phase duration="41" state="rrrrrGGGGgrrrrrGGGGg"/>
        <phase duration="3"  state="rrrrryyyyyrrrrryyyyy"/>
        <phase duration="1"  state="rrrrrrrrrrrrrrrrrrrr"/>
    </tlLogic>
    <tlLogic id="J1" type="static" programID="0" offset="0">
        <phase duration="41" state="GGGGgrrrrrGGGGgrrrrr"/>
        <phase duration="3"  state="yyyyyrrrrryyyyyrrrrr"/>
        <phase duration="1"  state="rrrrrrrrrrrrrrrrrrrr"/>
        <phase duration="41" state="rrrrrGGGGgrrrrrGGGGg"/>
        <phase duration="3"  state="rrrrryyyyyrrrrryyyyy"/>
        <phase duration="1"  state="rrrrrrrrrrrrrrrrrrrr"/>
    </tlLogic>
    <tlLogic id="J2" type="static" programID="0" offset="0">
        <phase duration="41" state="GGGGgrrrrrGGGGgrrrrr"/>
        <phase duration="3"  state="yyyyyrrrrryyyyyrrrrr"/>
        <phase duration="1"  state="rrrrrrrrrrrrrrrrrrrr"/>
        <phase duration="41" state="rrrrrGGGGgrrrrrGGGGg"/>
        <phase duration="3"  state="rrrrryyyyyrrrrryyyyy"/>
        <phase duration="1"  state="rrrrrrrrrrrrrrrrrrrr"/>
    </tlLogic>
    <tlLogic id="J3" type="static" programID="0" offset="0">
        <phase duration="41" state="GGGGgrrrrrGGGGgrrrrr"/>
        <phase duration="3"  state="yyyyyrrrrryyyyyrrrrr"/>
        <phase duration="1"  state="rrrrrrrrrrrrrrrrrrrr"/>
        <phase duration="41" state="rrrrrGGGGgrrrrrGGGGg"/>
        <phase duration="3"  state="rrrrryyyyyrrrrryyyyy"/>
        <phase duration="1"  state="rrrrrrrrrrrrrrrrrrrr"/>
    </tlLogic>

    <junction id="J0" type="traffic_light" x="0.00" y="100.00" incLanes="E3_0 E3_1 E3_2 -E0_0 -E0_1 -E0_2 -E8_0 -E8_1 -E8_2 -E11_0 -E11_1 -E11_2" intLanes=":J0_0_0 :J0_1_0 :J0_1_1 :J0_1_2 :J0_20_0 :J0_5_0 :J0_6_0 :J0_6_1 :J0_6_2 :J0_21_0 :J0_10_0 :J0_11_0 :J0_11_1 :J0_11_2 :J0_22_0 :J0_15_0 :J0_16_0 :J0_16_1 :J0_16_2 :J0_23_0" shape="-9.60,113.60 9.60,113.60 10.04,111.38 10.60,110.60 11.38,110.04 12.38,109.71 13.60,109.60 13.60,90.40 11.38,89.96 10.60,89.40 10.04,88.62 9.71,87.62 9.60,86.40 -9.60,86.40 -10.04,88.62 -10.60,89.40 -11.38,89.96 -12.38,90.29 -13.60,90.40 -13.60,109.60 -11.38,110.04 -10.60,110.60 -10.04,111.38 -9.71,112.38">
        <request index="0"  response="00000000000000000000" foes="00000000000111000000" cont="0"/>
        <request index="1"  response="10000000001000000000" foes="11111100001111000000" cont="0"/>
        <request index="2"  response="10000000001000000000" foes="11111100001111000000" cont="0"/>
        <request index="3"  response="10000000001000000000" foes="11111100001111000000" cont="0"/>
        <request index="4"  response="10000011101000000000" foes="11110011101111000000" cont="1"/>
        <request index="5"  response="00000011100000000000" foes="00000011100000000000" cont="0"/>
        <request index="6"  response="00000111100000011111" foes="10000111100000011111" cont="0"/>
        <request index="7"  response="00000111100000011111" foes="10000111100000011111" cont="0"/>
        <request index="8"  response="00000111100000011111" foes="10000111100000011111" cont="0"/>
        <request index="9"  response="01110111100000011110" foes="01110111100000011110" cont="1"/>
        <request index="10" response="00000000000000000000" foes="01110000000000000000" cont="0"/>
        <request index="11" response="10000000001000000000" foes="11110000001111110000" cont="0"/>
        <request index="12" response="10000000001000000000" foes="11110000001111110000" cont="0"/>
        <request index="13" response="10000000001000000000" foes="11110000001111110000" cont="0"/>
        <request index="14" response="10000000001000001110" foes="11110000001111001110" cont="1"/>
        <request index="15" response="00000000000000001110" foes="00000000000000001110" cont="0"/>
        <request index="16" response="00000111110000011110" foes="00000111111000011110" cont="0"/>
        <request index="17" response="00000111110000011110" foes="00000111111000011110" cont="0"/>
        <request index="18" response="00000111110000011110" foes="00000111111000011110" cont="0"/>
        <request index="19" response="00000111100111011110" foes="00000111100111011110" cont="1"/>
    </junction>